http://example.com/2024/01/21/Course-Review-ToC-Historial-Results/
http://example.com/2023/10/14/Docker-Usage/
http://example.com/2023/10/07/Vulkan-Sim-Experiment/
http://example.com/2023/08/15/Index-for-Graphics-Hardware/
http://example.com/2023/10/02/Leetcode-887-Egg-Drop/
http://example.com/2023/07/16/Dynamic-Programming-Patterns/
http://example.com/2023/09/09/Paper-Reading-2/
http://example.com/2023/09/12/Course-Review-AI-Problem-sloving-by-searching/
http://example.com/2023/09/05/Install-GPGPU-Sim/
http://example.com/2023/08/12/Leetcode-1071-Greatest-Common-Divisor-of-Strings/
http://example.com/2023/07/24/Paper-Reading-1/
http://example.com/2023/03/25/Config-for-anaconda/
http://example.com/2023/08/21/Install-Ubuntu/
http://example.com/2023/08/12/Common-Syntax-in-STL/
http://example.com/2023/07/17/Introduction-of-Interpreter/
http://example.com/2023/07/05/Cpp-Three-core-components/
http://example.com/2023/07/12/Linear-List-Array/
http://example.com/2023/08/12/Index-for-Leetcode/
http://example.com/2023/07/25/Ray-Tracing-in-One-Weekend-2/
http://example.com/2023/07/19/Ray-Tracing-in-One-Weekend-1/
http://example.com/2023/07/21/Paper-Reading-0/
http://example.com/2023/03/17/Data-Commentary/
http://example.com/2022/05/05/Tutorial/
http://example.com/2022/05/10/GoLang%E7%8E%AF%E5%A2%83%E5%AE%89%E8%A3%85%E6%8C%87%E5%BC%95/
http://example.com/2022/05/07/Work-and-study-1/
http://example.com/2023/03/10/MathJax/
http://example.com/tags/index.html
http://example.com/categories/index.html
http://example.com/2023/03/27/Argumentative-Essays/
http://example.com/
http://example.com/tags/Academic-Writing/
http://example.com/tags/Leetcode/
http://example.com/tags/Algorithm/
http://example.com/tags/Data-Structure/
http://example.com/tags/Python/
http://example.com/tags/Foundation-of-AI/
http://example.com/tags/Theory-of-Computation/
http://example.com/tags/Cpp-Foundamentals/
http://example.com/tags/Dynamic-Programming/
http://example.com/tags/GoLang/
http://example.com/tags/Architecture/
http://example.com/tags/Ubuntu/
http://example.com/tags/Compiler/
http://example.com/tags/Crafting-Interpreters/
http://example.com/tags/Hexo/
http://example.com/tags/Methodology/
http://example.com/tags/Graphics/
http://example.com/tags/Vocabulary-In-Use/
http://example.com/categories/English/
http://example.com/categories/CS/
http://example.com/categories/Tools/
http://example.com/categories/Summary/
http://example.com/categories/Reading/
